psse/psse-converter/src/test/resources/IEEE_14_buses_duplicated_ids.xiidm
<?xml version="1.0" encoding="UTF-8"?>
<iidm:network xmlns:iidm="http://www.powsybl.org/schema/iidm/1_9" xmlns:slt="http://www.powsybl.org/schema/iidm/ext/slack_terminal/1_5" id="IEEE_14_buses_duplicated_ids" caseDate="2016-01-01T10:00:00.000+02:00" forecastDistance="0" sourceFormat="PSS/E" minimumValidationLevel="STEADY_STATE_HYPOTHESIS">
    <iidm:substation id="S1">
        <iidm:voltageLevel id="VL1" nominalV="138.0" topologyKind="BUS_BREAKER">
            <iidm:busBreakerTopology>
                <iidm:bus id="B1" name="Bus 1       " v="146.28" angle="0.0"/>
            </iidm:busBreakerTopology>
            <iidm:generator id="B1-G1 " energySource="OTHER" minP="-10000.0" maxP="10000.0" voltageRegulatorOn="false" targetP="232.392" targetV="146.28" targetQ="-16.549" bus="B1" connectableBus="B1">
                <iidm:minMaxReactiveLimits minQ="0.0" maxQ="0.0"/>
            </iidm:generator>
        </iidm:voltageLevel>
    </iidm:substation>
    <iidm:substation id="S2">
        <iidm:voltageLevel id="VL2" nominalV="138.0" topologyKind="BUS_BREAKER">
            <iidm:busBreakerTopology>
                <iidm:bus id="B2" name="Bus 2       " v="144.20999999999998" angle="-4.9826"/>
            </iidm:busBreakerTopology>
            <iidm:generator id="B2-G1 " energySource="OTHER" minP="-10000.0" maxP="10000.0" voltageRegulatorOn="true" targetP="40.0" targetV="144.20999999999998" targetQ="43.556" bus="B2" connectableBus="B2">
                <iidm:regulatingTerminal id="B2-L1 "/>
                <iidm:minMaxReactiveLimits minQ="-40.0" maxQ="50.0"/>
            </iidm:generator>
            <iidm:load id="B2-L1 " loadType="UNDEFINED" p0="21.7" q0="12.7" bus="B2" connectableBus="B2"/>
        </iidm:voltageLevel>
    </iidm:substation>
    <iidm:substation id="S3">
        <iidm:voltageLevel id="VL3" nominalV="138.0" topologyKind="BUS_BREAKER">
            <iidm:busBreakerTopology>
                <iidm:bus id="B3" name="Bus 3       " v="139.38" angle="-12.725"/>
            </iidm:busBreakerTopology>
            <iidm:generator id="B3-G1 " energySource="OTHER" minP="-10000.0" maxP="10000.0" voltageRegulatorOn="true" targetP="0.0" targetV="139.38" targetQ="25.075" bus="B3" connectableBus="B3">
                <iidm:regulatingTerminal id="B3-L1 "/>
                <iidm:minMaxReactiveLimits minQ="0.0" maxQ="40.0"/>
            </iidm:generator>
            <iidm:load id="B3-L1 " loadType="UNDEFINED" p0="94.2" q0="19.0" bus="B3" connectableBus="B3"/>
        </iidm:voltageLevel>
    </iidm:substation>
    <iidm:substation id="S4">
        <iidm:voltageLevel id="VL4" nominalV="138.0" topologyKind="BUS_BREAKER">
            <iidm:busBreakerTopology>
                <iidm:bus id="B4" name="Bus 4       " v="140.43846000000002" angle="-10.3128"/>
                <iidm:bus id="B7" name="Bus 7       " v="146.48976" angle="-13.3596"/>
                <iidm:bus id="B9" name="Bus 9       " v="145.71834" angle="-14.9385"/>
            </iidm:busBreakerTopology>
            <iidm:load id="B4-L1 " loadType="UNDEFINED" p0="47.8" q0="-3.9" bus="B4" connectableBus="B4"/>
            <iidm:load id="B9-L1 " loadType="UNDEFINED" p0="29.5" q0="16.6" bus="B9" connectableBus="B9"/>
            <iidm:shunt id="B9-SH 1" sectionCount="1" voltageRegulatorOn="false" bus="B9" connectableBus="B9">
                <iidm:shuntLinearModel bPerSection="9.976895610165932E-4" gPerSection="0.0" maximumSectionCount="1"/>
            </iidm:shunt>
        </iidm:voltageLevel>
        <iidm:twoWindingsTransformer id="T-4-7-1 " r="0.0" x="39.8248128" g="0.0" b="0.0" ratedU1="138.0" ratedU2="138.0" bus1="B4" connectableBus1="B4" voltageLevelId1="VL4" bus2="B7" connectableBus2="B7" voltageLevelId2="VL4">
            <iidm:ratioTapChanger lowTapPosition="0" tapPosition="0" loadTapChangingCapabilities="false">
                <iidm:step r="0.0" x="0.0" g="-4.3515999999999995" b="-4.3515999999999995" rho="1.0224948875255624"/>
            </iidm:ratioTapChanger>
        </iidm:twoWindingsTransformer>
        <iidm:twoWindingsTransformer id="T-7-4-10" r="0.0" x="39.8248128" g="0.0" b="0.0" ratedU1="138.0" ratedU2="138.0" bus1="B7" connectableBus1="B7" voltageLevelId1="VL4" bus2="B4" connectableBus2="B4" voltageLevelId2="VL4">
            <iidm:ratioTapChanger lowTapPosition="0" tapPosition="0" loadTapChangingCapabilities="false">
                <iidm:step r="0.0" x="0.0" g="-4.3515999999999995" b="-4.3515999999999995" rho="1.0224948875255624"/>
            </iidm:ratioTapChanger>
        </iidm:twoWindingsTransformer>
        <iidm:twoWindingsTransformer id="T-4-7-11" r="0.0" x="39.8248128" g="0.0" b="0.0" ratedU1="138.0" ratedU2="138.0" bus1="B4" connectableBus1="B4" voltageLevelId1="VL4" bus2="B7" connectableBus2="B7" voltageLevelId2="VL4">
            <iidm:ratioTapChanger lowTapPosition="0" tapPosition="0" loadTapChangingCapabilities="false">
                <iidm:step r="0.0" x="0.0" g="-4.3515999999999995" b="-4.3515999999999995" rho="1.0224948875255624"/>
            </iidm:ratioTapChanger>
        </iidm:twoWindingsTransformer>
        <iidm:twoWindingsTransformer id="T-4-9-1 " r="0.0" x="105.9189192" g="0.0" b="0.0" ratedU1="138.0" ratedU2="138.0" bus1="B4" connectableBus1="B4" voltageLevelId1="VL4" bus2="B9" connectableBus2="B9" voltageLevelId2="VL4">
            <iidm:ratioTapChanger lowTapPosition="0" tapPosition="0" loadTapChangingCapabilities="false">
                <iidm:step r="0.0" x="0.0" g="-6.1039000000000065" b="-6.1039000000000065" rho="1.0319917440660475"/>
            </iidm:ratioTapChanger>
        </iidm:twoWindingsTransformer>
    </iidm:substation>
    <iidm:substation id="S5">
        <iidm:voltageLevel id="VL5" nominalV="138.0" topologyKind="BUS_BREAKER">
            <iidm:busBreakerTopology>
                <iidm:bus id="B5" name="Bus 5       " v="140.69237999999999" angle="-8.7738"/>
                <iidm:bus id="B6" name="Bus 6       " v="147.66" angle="-14.2209"/>
            </iidm:busBreakerTopology>
            <iidm:generator id="B6-G1 " energySource="OTHER" minP="-10000.0" maxP="10000.0" voltageRegulatorOn="true" targetP="0.0" targetV="147.66" targetQ="12.73" bus="B6" connectableBus="B6">
                <iidm:regulatingTerminal id="B6-L1 "/>
                <iidm:minMaxReactiveLimits minQ="-6.0" maxQ="24.0"/>
            </iidm:generator>
            <iidm:load id="B5-L1 " loadType="UNDEFINED" p0="7.6" q0="1.6" bus="B5" connectableBus="B5"/>
            <iidm:load id="B6-L1 " loadType="UNDEFINED" p0="11.2" q0="7.5" bus="B6" connectableBus="B6"/>
        </iidm:voltageLevel>
        <iidm:twoWindingsTransformer id="T-5-6-1 " r="0.0" x="47.994688800000006" g="0.0" b="0.0" ratedU1="138.0" ratedU2="138.0" bus1="B5" connectableBus1="B5" voltageLevelId1="VL5" bus2="B6" connectableBus2="B6" voltageLevelId2="VL5">
            <iidm:ratioTapChanger lowTapPosition="0" tapPosition="0" loadTapChangingCapabilities="false">
                <iidm:step r="0.0" x="0.0" g="-13.137599999999994" b="-13.137599999999994" rho="1.0729613733905579"/>
            </iidm:ratioTapChanger>
        </iidm:twoWindingsTransformer>
    </iidm:substation>
    <iidm:substation id="S8">
        <iidm:voltageLevel id="VL8" nominalV="138.0" topologyKind="BUS_BREAKER">
            <iidm:busBreakerTopology>
                <iidm:bus id="B8" name="Bus 8       " v="150.42000000000002" angle="-13.3596"/>
            </iidm:busBreakerTopology>
            <iidm:generator id="B8-G1 " energySource="OTHER" minP="-10000.0" maxP="10000.0" voltageRegulatorOn="true" targetP="0.0" targetV="150.42000000000002" targetQ="17.623" bus="B8" connectableBus="B8">
                <iidm:minMaxReactiveLimits minQ="-6.0" maxQ="24.0"/>
            </iidm:generator>
        </iidm:voltageLevel>
    </iidm:substation>
    <iidm:substation id="S10">
        <iidm:voltageLevel id="VL10" nominalV="138.0" topologyKind="BUS_BREAKER">
            <iidm:busBreakerTopology>
                <iidm:bus id="B10" name="Bus 10      " v="145.03662" angle="-15.0972"/>
            </iidm:busBreakerTopology>
            <iidm:load id="B10-L1 " loadType="UNDEFINED" p0="9.0" q0="5.8" bus="B10" connectableBus="B10"/>
        </iidm:voltageLevel>
    </iidm:substation>
    <iidm:substation id="S11">
        <iidm:voltageLevel id="VL11" nominalV="138.0" topologyKind="BUS_BREAKER">
            <iidm:busBreakerTopology>
                <iidm:bus id="B11" name="Bus 11      " v="145.85358" angle="-14.7906"/>
            </iidm:busBreakerTopology>
            <iidm:load id="B11-L1 " loadType="UNDEFINED" p0="3.5" q0="1.8" bus="B11" connectableBus="B11"/>
        </iidm:voltageLevel>
    </iidm:substation>
    <iidm:substation id="S12">
        <iidm:voltageLevel id="VL12" nominalV="138.0" topologyKind="BUS_BREAKER">
            <iidm:busBreakerTopology>
                <iidm:bus id="B12" name="Bus 12      " v="145.61622" angle="-15.0755"/>
            </iidm:busBreakerTopology>
            <iidm:load id="B12-L1 " loadType="UNDEFINED" p0="6.1" q0="1.6" bus="B12" connectableBus="B12"/>
        </iidm:voltageLevel>
    </iidm:substation>
    <iidm:substation id="S13">
        <iidm:voltageLevel id="VL13" nominalV="138.0" topologyKind="BUS_BREAKER">
            <iidm:busBreakerTopology>
                <iidm:bus id="B13" name="Bus 13      " v="144.95244000000002" angle="-15.1562"/>
            </iidm:busBreakerTopology>
            <iidm:load id="B13-L1 " loadType="UNDEFINED" p0="13.5" q0="5.8" bus="B13" connectableBus="B13"/>
        </iidm:voltageLevel>
    </iidm:substation>
    <iidm:substation id="S14">
        <iidm:voltageLevel id="VL14" nominalV="138.0" topologyKind="BUS_BREAKER">
            <iidm:busBreakerTopology>
                <iidm:bus id="B14" name="Bus 14      " v="142.90314" angle="-16.0336"/>
            </iidm:busBreakerTopology>
            <iidm:load id="B14-L1 " loadType="UNDEFINED" p0="14.9" q0="5.0" bus="B14" connectableBus="B14"/>
        </iidm:voltageLevel>
    </iidm:substation>
    <iidm:line id="L-1-2-1 " r="3.6907272" x="11.2683348" g1="0.0" b1="1.3862633900441084E-4" g2="0.0" b2="1.3862633900441084E-4" bus1="B1" connectableBus1="B1" voltageLevelId1="VL1" bus2="B2" connectableBus2="B2" voltageLevelId2="VL2"/>
    <iidm:line id="L-1-5-1 " r="10.2894732" x="42.475737599999995" g1="0.0" b1="1.2917454316320101E-4" g2="0.0" b2="1.2917454316320101E-4" bus1="B1" connectableBus1="B1" voltageLevelId1="VL1" bus2="B5" connectableBus2="B5" voltageLevelId2="VL5"/>
    <iidm:line id="L-2-3-1 " r="8.9487756" x="37.7014068" g1="0.0" b1="1.1499684940138626E-4" g2="0.0" b2="1.1499684940138626E-4" bus1="B2" connectableBus1="B2" voltageLevelId1="VL2" bus2="B3" connectableBus2="B3" voltageLevelId2="VL3"/>
    <iidm:line id="L-2-4-1 " r="11.066468400000002" x="33.578380800000005" g1="0.0" b1="8.926696072253729E-5" g2="0.0" b2="8.926696072253729E-5" bus1="B2" connectableBus1="B2" voltageLevelId1="VL2" bus2="B4" connectableBus2="B4" voltageLevelId2="VL4"/>
    <iidm:line id="L-2-5-1 " r="10.845557999999999" x="33.1137072" g1="0.0" b1="9.084226002940558E-5" g2="0.0" b2="9.084226002940558E-5" bus1="B2" connectableBus1="B2" voltageLevelId1="VL2" bus2="B5" connectableBus2="B5" voltageLevelId2="VL5"/>
    <iidm:line id="L-3-4-1 " r="12.761384399999999" x="32.5709532" g1="0.0" b1="3.3606385213190505E-5" g2="0.0" b2="3.3606385213190505E-5" bus1="B3" connectableBus1="B3" voltageLevelId1="VL3" bus2="B4" connectableBus2="B4" voltageLevelId2="VL4"/>
    <iidm:line id="L-4-5-1 " r="2.542374" x="8.0194284" g1="0.0" b1="0.0" g2="0.0" b2="0.0" bus1="B4" connectableBus1="B4" voltageLevelId1="VL4" bus2="B5" connectableBus2="B5" voltageLevelId2="VL5"/>
    <iidm:line id="L-6-11-1 " r="18.087991199999998" x="37.878516" g1="0.0" b1="0.0" g2="0.0" b2="0.0" bus1="B6" connectableBus1="B6" voltageLevelId1="VL5" bus2="B11" connectableBus2="B11" voltageLevelId2="VL11"/>
    <iidm:line id="L-6-12-1 " r="23.406980400000002" x="48.7164564" g1="0.0" b1="0.0" g2="0.0" b2="0.0" bus1="B6" connectableBus1="B6" voltageLevelId1="VL5" bus2="B12" connectableBus2="B12" voltageLevelId2="VL12"/>
    <iidm:line id="L-6-13-1 " r="12.597606" x="24.808618800000005" g1="0.0" b1="0.0" g2="0.0" b2="0.0" bus1="B6" connectableBus1="B6" voltageLevelId1="VL5" bus2="B13" connectableBus2="B13" voltageLevelId2="VL13"/>
    <iidm:line id="L-7-8-1 " r="0.0" x="33.546006000000006" g1="0.0" b1="0.0" g2="0.0" b2="0.0" bus1="B7" connectableBus1="B7" voltageLevelId1="VL4" bus2="B8" connectableBus2="B8" voltageLevelId2="VL8"/>
    <iidm:line id="L-7-9-1 " r="0.0" x="20.9503044" g1="0.0" b1="0.0" g2="0.0" b2="0.0" bus1="B7" connectableBus1="B7" voltageLevelId1="VL4" bus2="B9" connectableBus2="B9" voltageLevelId2="VL4"/>
    <iidm:line id="L-9-10-1 " r="6.0578964" x="16.092180000000003" g1="0.0" b1="0.0" g2="0.0" b2="0.0" bus1="B9" connectableBus1="B9" voltageLevelId1="VL4" bus2="B10" connectableBus2="B10" voltageLevelId2="VL10"/>
    <iidm:line id="L-9-14-1 " r="24.2068284" x="51.4911672" g1="0.0" b1="0.0" g2="0.0" b2="0.0" bus1="B9" connectableBus1="B9" voltageLevelId1="VL4" bus2="B14" connectableBus2="B14" voltageLevelId2="VL14"/>
    <iidm:line id="L-10-11-1 " r="15.625601999999999" x="36.577810799999995" g1="0.0" b1="0.0" g2="0.0" b2="0.0" bus1="B10" connectableBus1="B10" voltageLevelId1="VL10" bus2="B11" connectableBus2="B11" voltageLevelId2="VL11"/>
    <iidm:line id="L-12-13-1 " r="42.0720048" x="38.0651472" g1="0.0" b1="0.0" g2="0.0" b2="0.0" bus1="B12" connectableBus1="B12" voltageLevelId1="VL12" bus2="B13" connectableBus2="B13" voltageLevelId2="VL13"/>
    <iidm:line id="L-13-14-1 " r="32.5519092" x="66.2769288" g1="0.0" b1="0.0" g2="0.0" b2="0.0" bus1="B13" connectableBus1="B13" voltageLevelId1="VL13" bus2="B14" connectableBus2="B14" voltageLevelId2="VL14"/>
    <iidm:line id="L-14-13-10" r="32.5519092" x="66.2769288" g1="0.0" b1="0.0" g2="0.0" b2="0.0" bus1="B14" connectableBus1="B14" voltageLevelId1="VL14" bus2="B13" connectableBus2="B13" voltageLevelId2="VL13"/>
    <iidm:line id="L-13-14-11" r="32.5519092" x="66.2769288" g1="0.0" b1="0.0" g2="0.0" b2="0.0" bus1="B13" connectableBus1="B13" voltageLevelId1="VL13" bus2="B14" connectableBus2="B14" voltageLevelId2="VL14"/>
    <iidm:extension id="VL1">
        <slt:slackTerminal id="B1-G1 "/>
    </iidm:extension>
</iidm:network>
